---- qbsp / ericw-tools v0.18.1 ----
Input file: /home/danni/Games/QuakeDev/working/opposesmall/opposesmall-compile.map
Output file: /home/danni/Games/QuakeDev/working/opposesmall/opposesmall-compile.bsp

---- LoadMapFile ----
         3378 faces
          559 brushes
          101 entities
           43 unique texnames
          820 texinfo

Opened WAD: /home/danni/Games/QuakeDev/working/opposesmall/oppose2.wad
Processing hull 0...
---- Brush_LoadEntity ----
          553 brushes
          384 planes
---- CSGFaces ----
         3342 brushfaces
         2769 csgfaces
         2442 mergedfaces
---- SolidBSP ----
         3486 split nodes
         1498 solid leafs
         1929 empty leafs
           60 water leafs
            0 detail leafs
            0 detail illusionary leafs
            0 detail fence leafs
            0 illusionary visblocker leafs
         6418 leaffaces
         5898 nodefaces
---- Portalize ----
         1989 vis leafs
         1989 vis clusters
         5913 vis portals
---- FillOutside ----
         1045 outleafs
---- MergeAll ----
         1602 mergefaces
---- SolidBSP ----
          954 split nodes
          506 solid leafs
          427 empty leafs
           22 water leafs
            0 detail leafs
            0 detail illusionary leafs
            0 detail fence leafs
            0 illusionary visblocker leafs
         2828 leaffaces
         2259 nodefaces
---- Portalize ----
          449 vis leafs
          449 vis clusters
         1272 vis portals
---- Tjunc ----
         2138 world edges
         8003 edge points
         2053 edges added by tjunctions
            0 faces added by tjunctions
---- MakeFaceEdges ----
---- GrowRegions ----
Processing hull 1...
Processing hull 2...
---- WriteBSPFile ----
Wrote /home/danni/Games/QuakeDev/working/opposesmall/opposesmall-compile.bsp
          668 planes            13360
         3204 vertexes          38448
          990 nodes             23760
          434 texinfo           17360
         2303 faces             46060
         2751 clipnodes         22008
          486 leafs             13608
         2872 marksurfaces       5744
        11242 surfedges         44968
         5624 edges             22496
           45 textures         411684
              lightdata             0
              visdata               0
              entdata            8439

0.242 seconds elapsed
Peak memory usage: 23625560 (22.5M)
