---- qbsp / ericw-tools v0.18.1 ----
Input file: /home/danni/Games/QuakeDev/working/opposesmall/opposesmall-compile.map
Output file: /home/danni/Games/QuakeDev/working/opposesmall/opposesmall-compile.bsp

---- LoadMapFile ----
         6750 faces
         1117 brushes
          199 entities
           46 unique texnames
         1546 texinfo

Opened WAD: /home/danni/Games/QuakeDev/working/opposesmall/oppose2.wad
Processing hull 0...
---- Brush_LoadEntity ----
         1105 brushes
          633 planes
---- CSGFaces ----
         6678 brushfaces
         5528 csgfaces
         4889 mergedfaces
---- SolidBSP ----
         7090 split nodes
         3042 solid leafs
         3943 empty leafs
          106 water leafs
            0 detail leafs
            0 detail illusionary leafs
            0 detail fence leafs
            0 illusionary visblocker leafs
        12795 leaffaces
        11877 nodefaces
---- Portalize ----
         4049 vis leafs
         4049 vis clusters
        12072 vis portals
---- FillOutside ----
         2090 outleafs
---- MergeAll ----
         3222 mergefaces
---- SolidBSP ----
         1834 split nodes
          932 solid leafs
          862 empty leafs
           41 water leafs
            0 detail leafs
            0 detail illusionary leafs
            0 detail fence leafs
            0 illusionary visblocker leafs
         5681 leaffaces
         4438 nodefaces
---- Portalize ----
          903 vis leafs
          903 vis clusters
         2656 vis portals
---- Tjunc ----
         4168 world edges
        15792 edge points
         4065 edges added by tjunctions
            0 faces added by tjunctions
---- MakeFaceEdges ----
---- GrowRegions ----
Processing hull 1...
Processing hull 2...
---- WriteBSPFile ----
Wrote /home/danni/Games/QuakeDev/working/opposesmall/opposesmall-compile.bsp
         1136 planes            22720
         6314 vertexes          75768
         1906 nodes             45744
          829 texinfo           33160
         4526 faces             90520
         5344 clipnodes         42752
          976 leafs             27328
         5769 marksurfaces      11538
        22134 surfedges         88536
        11068 edges             44272
           48 textures         444456
              lightdata             0
              visdata               0
              entdata           17775

0.523 seconds elapsed
Peak memory usage: 46687978 (44.5M)
