---- qbsp / ericw-tools v0.18.1 ----
Input file: /home/danni/Games/QuakeDev/working/stag2/stag2.map
Output file: /home/danni/Games/QuakeDev/working/stag2/stag2.bsp

---- LoadMapFile ----
         4529 faces
          753 brushes
          188 entities
           27 unique texnames
          458 texinfo

Opened WAD: /home/danni/Games/QuakeDev/wads/stag.wad
Processing hull 0...
---- Brush_LoadEntity ----
          717 brushes
          445 planes
---- CSGFaces ----
         4313 brushfaces
         3247 csgfaces
         3040 mergedfaces
---- SolidBSP ----
         3434 split nodes
         1530 solid leafs
         1704 empty leafs
          201 water leafs
            0 detail leafs
            0 detail illusionary leafs
            0 detail fence leafs
            0 illusionary visblocker leafs
         8661 leaffaces
         8238 nodefaces
---- Portalize ----
         1905 vis leafs
         1905 vis clusters
         5109 vis portals
---- FillOutside ----
*** WARNING 10: Reached occupant at (-464 224 -3888), no filling performed.
Leak file written to /home/danni/Games/QuakeDev/working/stag2/stag2.pts
---- MakeFaceEdges ----
---- GrowRegions ----
Processing hull 1...
Processing hull 2...
---- WriteBSPFile ----
Wrote /home/danni/Games/QuakeDev/working/stag2/stag2.bsp
          967 planes            19340
         9929 vertexes         119148
         3542 nodes             85008
          305 texinfo           12200
         8354 faces            167080
         3110 clipnodes         24880
         2014 leafs             56392
         8777 marksurfaces      17554
        33386 surfedges        133544
        21284 edges             85136
           27 textures         198392
              lightdata             0
              visdata               0
              entdata           21371

0.280 seconds elapsed
Peak memory usage: 35639522 (34.0M)
