---- qbsp / ericw-tools v0.18.1 ----
Input file: /home/danni/Games/QuakeDev/working/stag2r/stag2r.map
Output file: /home/danni/Games/QuakeDev/working/stag2r/stag2r.bsp

---- LoadMapFile ----
         4517 faces
          751 brushes
          182 entities
           27 unique texnames
          458 texinfo

Opened WAD: /home/danni/Games/QuakeDev/wads/stag.wad
Processing hull 0...
---- Brush_LoadEntity ----
          715 brushes
          444 planes
---- CSGFaces ----
         4301 brushfaces
         3194 csgfaces
         2982 mergedfaces
---- SolidBSP ----
         3333 split nodes
         1488 solid leafs
         1669 empty leafs
          177 water leafs
            0 detail leafs
            0 detail illusionary leafs
            0 detail fence leafs
            0 illusionary visblocker leafs
         8476 leaffaces
         8073 nodefaces
---- Portalize ----
         1846 vis leafs
         1846 vis clusters
         4967 vis portals
---- FillOutside ----
          770 outleafs
---- MergeAll ----
         2521 mergefaces
---- SolidBSP ----
         1612 split nodes
          917 solid leafs
          561 empty leafs
          135 water leafs
            0 detail leafs
            0 detail illusionary leafs
            0 detail fence leafs
            0 illusionary visblocker leafs
         4843 leaffaces
         4391 nodefaces
---- Portalize ----
          696 vis leafs
          696 vis clusters
         1730 vis portals
---- Tjunc ----
         3019 world edges
        13916 edge points
         3523 edges added by tjunctions
            0 faces added by tjunctions
---- MakeFaceEdges ----
---- GrowRegions ----
Processing hull 1...
Processing hull 2...
---- WriteBSPFile ----
Wrote /home/danni/Games/QuakeDev/working/stag2r/stag2r.bsp
          919 planes            18380
         5604 vertexes          67248
         1720 nodes             41280
          211 texinfo            8440
         4507 faces             90140
         3139 clipnodes         25112
          805 leafs             22540
         4959 marksurfaces       9918
        21524 surfedges         86096
        10779 edges             43116
           27 textures         198392
              lightdata             0
              visdata               0
              entdata           21287

0.280 seconds elapsed
Peak memory usage: 27966058 (26.7M)
