---- qbsp / ericw-tools v0.18.1 ----
Input file: /home/danni/Games/QuakeDev/working/drop2/drop2-compile.map
Output file: /home/danni/Games/QuakeDev/working/drop2/drop2-compile.bsp

---- LoadMapFile ----
*** WARNING 02: Multiple info_player_start entities
         4966 faces
          827 brushes
          172 entities
           13 unique texnames
          665 texinfo

Opened WAD: /home/danni/Games/QuakeDev/wads/impact1.wad
Processing hull 0...
---- Brush_LoadEntity ----
          711 brushes
          697 planes
---- CSGFaces ----
         4270 brushfaces
         4859 csgfaces
         4130 mergedfaces
---- SolidBSP ----
         6561 split nodes
         2734 solid leafs
         3647 empty leafs
          181 water leafs
            0 detail leafs
            0 detail illusionary leafs
            0 detail fence leafs
            0 illusionary visblocker leafs
        12339 leaffaces
        11743 nodefaces
---- Portalize ----
         3828 vis leafs
         3828 vis clusters
        11128 vis portals
---- FillOutside ----
         1979 outleafs
---- MergeAll ----
         2914 mergefaces
---- SolidBSP ----
         1822 split nodes
          906 solid leafs
          891 empty leafs
           26 water leafs
            0 detail leafs
            0 detail illusionary leafs
            0 detail fence leafs
            0 illusionary visblocker leafs
         5186 leaffaces
         4138 nodefaces
---- Portalize ----
          917 vis leafs
          917 vis clusters
         2641 vis portals
---- Tjunc ----
         4114 world edges
        14934 edge points
         3987 edges added by tjunctions
            0 faces added by tjunctions
---- MakeFaceEdges ----
---- GrowRegions ----
Processing hull 1...
Processing hull 2...
---- WriteBSPFile ----
Wrote /home/danni/Games/QuakeDev/working/drop2/drop2-compile.bsp
         1021 planes            20420
         6006 vertexes          72072
         1918 nodes             46032
          435 texinfo           17400
         4234 faces             84680
         4742 clipnodes         37936
         1014 leafs             28392
         5282 marksurfaces      10564
        20904 surfedges         83616
        10453 edges             41812
           13 textures         245376
              lightdata             0
              visdata               0
              entdata           18744

0.419 seconds elapsed
Peak memory usage: 39552996 (37.7M)
