---- qbsp / ericw-tools v0.18.1 ----
Input file: /home/danni/Games/QuakeDev/working/drop2/drop2-compile.map
Output file: /home/danni/Games/QuakeDev/working/drop2/drop2-compile.bsp

---- LoadMapFile ----
*** WARNING 02: Multiple info_player_start entities
         4846 faces
          807 brushes
          167 entities
           13 unique texnames
          633 texinfo

Opened WAD: /home/danni/Games/QuakeDev/wads/impact1.wad
Processing hull 0...
---- Brush_LoadEntity ----
          695 brushes
          693 planes
---- CSGFaces ----
         4174 brushfaces
         4690 csgfaces
         3991 mergedfaces
---- SolidBSP ----
         6034 split nodes
         2480 solid leafs
         3370 empty leafs
          185 water leafs
            0 detail leafs
            0 detail illusionary leafs
            0 detail fence leafs
            0 illusionary visblocker leafs
        11809 leaffaces
        11224 nodefaces
---- Portalize ----
         3555 vis leafs
         3555 vis clusters
        10495 vis portals
---- FillOutside ----
         1804 outleafs
---- MergeAll ----
         2861 mergefaces
---- SolidBSP ----
         1733 split nodes
          848 solid leafs
          862 empty leafs
           24 water leafs
            0 detail leafs
            0 detail illusionary leafs
            0 detail fence leafs
            0 illusionary visblocker leafs
         5204 leaffaces
         4090 nodefaces
---- Portalize ----
          886 vis leafs
          886 vis clusters
         2546 vis portals
---- Tjunc ----
         4011 world edges
        14744 edge points
         3999 edges added by tjunctions
            0 faces added by tjunctions
---- MakeFaceEdges ----
---- GrowRegions ----
Processing hull 1...
Processing hull 2...
---- WriteBSPFile ----
Wrote /home/danni/Games/QuakeDev/working/drop2/drop2-compile.bsp
         1040 planes            20800
         5927 vertexes          71124
         1805 nodes             43320
          414 texinfo           16560
         4162 faces             83240
         4527 clipnodes         36216
          959 leafs             26852
         5276 marksurfaces      10552
        20628 surfedges         82512
        10315 edges             41260
           13 textures         245376
              lightdata             0
              visdata               0
              entdata           19325

0.411 seconds elapsed
Peak memory usage: 38450820 (36.7M)
