---- qbsp / ericw-tools v0.18.1 ----
Input file: /home/danni/Games/QuakeDev/working/well6small/well6small.map
Output file: /home/danni/Games/QuakeDev/working/well6small/well6small.bsp

---- LoadMapFile ----
         9281 faces
         1545 brushes
          278 entities
           41 unique texnames
          738 texinfo

Opened WAD: /home/danni/Games/QuakeDev/wads/well6-aus.wad
Processing hull 0...
---- Brush_LoadEntity ----
         1432 brushes
          845 planes
---- CSGFaces ----
         8611 brushfaces
         6204 csgfaces
         4929 mergedfaces
---- SolidBSP ----
         8056 split nodes
         3671 solid leafs
         3786 empty leafs
          600 water leafs
            0 detail leafs
            0 detail illusionary leafs
            0 detail fence leafs
            0 illusionary visblocker leafs
        16472 leaffaces
        15087 nodefaces
---- Portalize ----
         4386 vis leafs
         4386 vis clusters
        11569 vis portals
---- FillOutside ----
         1584 outleafs
---- MergeAll ----
         3998 mergefaces
---- SolidBSP ----
         2679 split nodes
         1473 solid leafs
         1003 empty leafs
          204 water leafs
            0 detail leafs
            0 detail illusionary leafs
            0 detail fence leafs
            0 illusionary visblocker leafs
         8327 leaffaces
         6984 nodefaces
---- Portalize ----
         1207 vis leafs
         1207 vis clusters
         3066 vis portals
---- Tjunc ----
         5589 world edges
        23733 edge points
         6930 edges added by tjunctions
            0 faces added by tjunctions
---- MakeFaceEdges ----
---- GrowRegions ----
Processing hull 1...
*** WARNING 08: Point (-1518.000 -446.086 -353.978) off plane by 0.0003
*** WARNING 08: Point (-1391.047 -438.151 -353.978) off plane by 0.0003
*** WARNING 08: Point (-1391.047 -438.151 -409.978) off plane by 0.0003
*** WARNING 08: Point (-1518.000 -446.086 -409.978) off plane by 0.0003
Processing hull 2...
*** WARNING 08: Point (-1502.000 -462.086 -353.978) off plane by 0.0003
*** WARNING 08: Point (-1375.047 -454.151 -353.978) off plane by 0.0003
*** WARNING 08: Point (-1375.047 -454.151 -441.978) off plane by 0.0003
*** WARNING 08: Point (-1502.000 -462.086 -441.978) off plane by 0.0003
---- WriteBSPFile ----
Wrote /home/danni/Games/QuakeDev/working/well6small/well6small.bsp
         2526 planes            50520
        10585 vertexes         127020
         3177 nodes             76248
          488 texinfo           19520
         7754 faces            155080
         8507 clipnodes         68056
         1639 leafs             45892
         9206 marksurfaces      18412
        37821 surfedges        151284
        19422 edges             77688
           44 textures         368460
              lightdata             0
              visdata               0
              entdata           37213

0.756 seconds elapsed
Peak memory usage: 53556876 (51.1M)
