---- qbsp / ericw-tools v0.18.1 ----
Input file: /home/danni/Games/QuakeDev/working/well6small/well6small.map
Output file: /home/danni/Games/QuakeDev/working/well6small/well6small.bsp

---- LoadMapFile ----
         9223 faces
         1535 brushes
          275 entities
           41 unique texnames
          750 texinfo

Opened WAD: /home/danni/Games/QuakeDev/wads/well6-aus.wad
Processing hull 0...
---- Brush_LoadEntity ----
         1422 brushes
          859 planes
---- CSGFaces ----
         8553 brushfaces
         6243 csgfaces
         4975 mergedfaces
---- SolidBSP ----
         8084 split nodes
         3669 solid leafs
         3815 empty leafs
          601 water leafs
            0 detail leafs
            0 detail illusionary leafs
            0 detail fence leafs
            0 illusionary visblocker leafs
        16536 leaffaces
        15141 nodefaces
---- Portalize ----
         4416 vis leafs
         4416 vis clusters
        11633 vis portals
---- FillOutside ----
         1611 outleafs
---- MergeAll ----
         4002 mergefaces
---- SolidBSP ----
         2675 split nodes
         1465 solid leafs
         1013 empty leafs
          198 water leafs
            0 detail leafs
            0 detail illusionary leafs
            0 detail fence leafs
            0 illusionary visblocker leafs
         8355 leaffaces
         7011 nodefaces
---- Portalize ----
         1211 vis leafs
         1211 vis clusters
         3073 vis portals
---- Tjunc ----
         5588 world edges
        23727 edge points
         6922 edges added by tjunctions
            0 faces added by tjunctions
---- MakeFaceEdges ----
---- GrowRegions ----
Processing hull 1...
*** WARNING 08: Point (-1518.000 -446.086 -353.978) off plane by 0.0003
*** WARNING 08: Point (-1391.047 -438.151 -353.978) off plane by 0.0003
*** WARNING 08: Point (-1391.047 -438.151 -409.978) off plane by 0.0003
*** WARNING 08: Point (-1518.000 -446.086 -409.978) off plane by 0.0003
Processing hull 2...
*** WARNING 08: Point (-1502.000 -462.086 -353.978) off plane by 0.0003
*** WARNING 08: Point (-1375.047 -454.151 -353.978) off plane by 0.0003
*** WARNING 08: Point (-1375.047 -454.151 -441.978) off plane by 0.0003
*** WARNING 08: Point (-1502.000 -462.086 -441.978) off plane by 0.0003
---- WriteBSPFile ----
Wrote /home/danni/Games/QuakeDev/working/well6small/well6small.bsp
         2528 planes            50560
        10578 vertexes         126936
         3173 nodes             76152
          497 texinfo           19880
         7781 faces            155620
         8453 clipnodes         67624
         1643 leafs             46004
         9234 marksurfaces      18468
        37905 surfedges        151620
        19464 edges             77856
           44 textures         368460
              lightdata             0
              visdata               0
              entdata           36681

0.760 seconds elapsed
Peak memory usage: 53513864 (51.0M)
