---- qbsp / ericw-tools v0.18.1 ----
Input file: /home/danni/Games/QuakeDev/working/well6small/well6small.map
Output file: /home/danni/Games/QuakeDev/working/well6small/well6small.bsp

---- LoadMapFile ----
         9162 faces
         1527 brushes
          277 entities
           41 unique texnames
          817 texinfo

Opened WAD: /home/danni/Games/QuakeDev/wads/well6-aus.wad
Processing hull 0...
---- Brush_LoadEntity ----
         1419 brushes
          874 planes
---- CSGFaces ----
         8538 brushfaces
         6250 csgfaces
         5004 mergedfaces
---- SolidBSP ----
         8219 split nodes
         3720 solid leafs
         3896 empty leafs
          604 water leafs
            0 detail leafs
            0 detail illusionary leafs
            0 detail fence leafs
            0 illusionary visblocker leafs
        16838 leaffaces
        15387 nodefaces
---- Portalize ----
         4500 vis leafs
         4500 vis clusters
        11895 vis portals
---- FillOutside ----
         1698 outleafs
---- MergeAll ----
         3967 mergefaces
---- SolidBSP ----
         2663 split nodes
         1462 solid leafs
         1004 empty leafs
          198 water leafs
            0 detail leafs
            0 detail illusionary leafs
            0 detail fence leafs
            0 illusionary visblocker leafs
         8272 leaffaces
         6956 nodefaces
---- Portalize ----
         1202 vis leafs
         1202 vis clusters
         3033 vis portals
---- Tjunc ----
         5576 world edges
        23588 edge points
         6857 edges added by tjunctions
            0 faces added by tjunctions
---- MakeFaceEdges ----
---- GrowRegions ----
Processing hull 1...
*** WARNING 08: Point (-1518.000 -446.086 -353.978) off plane by 0.0003
*** WARNING 08: Point (-1391.047 -438.151 -353.978) off plane by 0.0003
*** WARNING 08: Point (-1391.047 -438.151 -409.978) off plane by 0.0003
*** WARNING 08: Point (-1518.000 -446.086 -409.978) off plane by 0.0003
Processing hull 2...
*** WARNING 08: Point (-1502.000 -462.086 -353.978) off plane by 0.0003
*** WARNING 08: Point (-1375.047 -454.151 -353.978) off plane by 0.0003
*** WARNING 08: Point (-1375.047 -454.151 -441.978) off plane by 0.0003
*** WARNING 08: Point (-1502.000 -462.086 -441.978) off plane by 0.0003
---- WriteBSPFile ----
Wrote /home/danni/Games/QuakeDev/working/well6small/well6small.bsp
         2430 planes            48600
        10339 vertexes         124068
         3171 nodes             76104
          541 texinfo           21640
         7644 faces            152880
         7780 clipnodes         62240
         1633 leafs             45724
         9037 marksurfaces      18074
        37279 surfedges        149116
        18951 edges             75804
           44 textures         368460
              lightdata             0
              visdata               0
              entdata           36220

0.726 seconds elapsed
Peak memory usage: 53614022 (51.1M)
