---- qbsp / ericw-tools v0.18.1 ----
Input file: /home/danni/Games/QuakeDev/working/well6small/well6small.map
Output file: /home/danni/Games/QuakeDev/working/well6small/well6small.bsp

---- LoadMapFile ----
         9457 faces
         1575 brushes
          101 entities
           41 unique texnames
          739 texinfo

Opened WAD: /home/danni/Games/QuakeDev/wads/well6-aus.wad
Processing hull 0...
---- Brush_LoadEntity ----
         1449 brushes
          850 planes
---- CSGFaces ----
         8709 brushfaces
         6261 csgfaces
         4967 mergedfaces
---- SolidBSP ----
         8099 split nodes
         3686 solid leafs
         3804 empty leafs
          610 water leafs
            0 detail leafs
            0 detail illusionary leafs
            0 detail fence leafs
            0 illusionary visblocker leafs
        16803 leaffaces
        15386 nodefaces
---- Portalize ----
         4414 vis leafs
         4414 vis clusters
        11727 vis portals
---- FillOutside ----
         1617 outleafs
---- MergeAll ----
         3983 mergefaces
---- SolidBSP ----
         2682 split nodes
         1452 solid leafs
         1026 empty leafs
          205 water leafs
            0 detail leafs
            0 detail illusionary leafs
            0 detail fence leafs
            0 illusionary visblocker leafs
         8383 leaffaces
         6970 nodefaces
---- Portalize ----
         1231 vis leafs
         1231 vis clusters
         3206 vis portals
---- Tjunc ----
         5571 world edges
        23672 edge points
         6911 edges added by tjunctions
            0 faces added by tjunctions
---- MakeFaceEdges ----
---- GrowRegions ----
Processing hull 1...
*** WARNING 08: Point (-1518.000 -446.086 -353.978) off plane by 0.0003
*** WARNING 08: Point (-1391.047 -438.151 -353.978) off plane by 0.0003
*** WARNING 08: Point (-1391.047 -438.151 -409.978) off plane by 0.0003
*** WARNING 08: Point (-1518.000 -446.086 -409.978) off plane by 0.0003
Processing hull 2...
*** WARNING 08: Point (-1502.000 -462.086 -353.978) off plane by 0.0003
*** WARNING 08: Point (-1375.047 -454.151 -353.978) off plane by 0.0003
*** WARNING 08: Point (-1375.047 -454.151 -441.978) off plane by 0.0003
*** WARNING 08: Point (-1502.000 -462.086 -441.978) off plane by 0.0003
---- WriteBSPFile ----
Wrote /home/danni/Games/QuakeDev/working/well6small/well6small.bsp
         2582 planes            51640
        10666 vertexes         127992
         3246 nodes             77904
          489 texinfo           19560
         7818 faces            156360
         8488 clipnodes         67904
         1717 leafs             48076
         9340 marksurfaces      18680
        38054 surfedges        152216
        19581 edges             78324
           44 textures         368460
              lightdata             0
              visdata               0
              entdata           20234

0.774 seconds elapsed
Peak memory usage: 54600228 (52.1M)
