---- qbsp / ericw-tools v0.18.1 ----
Input file: /home/danni/Games/QuakeDev/working/well6small/well6small.map
Output file: /home/danni/Games/QuakeDev/working/well6small/well6small.bsp

---- LoadMapFile ----
         9247 faces
         1539 brushes
          278 entities
           41 unique texnames
          744 texinfo

Opened WAD: /home/danni/Games/QuakeDev/wads/well6-aus.wad
Processing hull 0...
---- Brush_LoadEntity ----
         1426 brushes
          856 planes
---- CSGFaces ----
         8577 brushfaces
         6228 csgfaces
         4948 mergedfaces
---- SolidBSP ----
         8070 split nodes
         3665 solid leafs
         3805 empty leafs
          601 water leafs
            0 detail leafs
            0 detail illusionary leafs
            0 detail fence leafs
            0 illusionary visblocker leafs
        16520 leaffaces
        15121 nodefaces
---- Portalize ----
         4406 vis leafs
         4406 vis clusters
        11615 vis portals
---- FillOutside ----
         1597 outleafs
---- MergeAll ----
         4001 mergefaces
---- SolidBSP ----
         2686 split nodes
         1474 solid leafs
         1009 empty leafs
          204 water leafs
            0 detail leafs
            0 detail illusionary leafs
            0 detail fence leafs
            0 illusionary visblocker leafs
         8334 leaffaces
         6981 nodefaces
---- Portalize ----
         1213 vis leafs
         1213 vis clusters
         3077 vis portals
---- Tjunc ----
         5594 world edges
        23701 edge points
         6904 edges added by tjunctions
            0 faces added by tjunctions
---- MakeFaceEdges ----
---- GrowRegions ----
Processing hull 1...
*** WARNING 08: Point (-1518.000 -446.086 -353.978) off plane by 0.0003
*** WARNING 08: Point (-1391.047 -438.151 -353.978) off plane by 0.0003
*** WARNING 08: Point (-1391.047 -438.151 -409.978) off plane by 0.0003
*** WARNING 08: Point (-1518.000 -446.086 -409.978) off plane by 0.0003
Processing hull 2...
*** WARNING 08: Point (-1502.000 -462.086 -353.978) off plane by 0.0003
*** WARNING 08: Point (-1375.047 -454.151 -353.978) off plane by 0.0003
*** WARNING 08: Point (-1375.047 -454.151 -441.978) off plane by 0.0003
*** WARNING 08: Point (-1502.000 -462.086 -441.978) off plane by 0.0003
---- WriteBSPFile ----
Wrote /home/danni/Games/QuakeDev/working/well6small/well6small.bsp
         2537 planes            50740
        10564 vertexes         126768
         3184 nodes             76416
          492 texinfo           19680
         7751 faces            155020
         8497 clipnodes         67976
         1645 leafs             46060
         9213 marksurfaces      18426
        37773 surfedges        151092
        19398 edges             77592
           44 textures         368460
              lightdata             0
              visdata               0
              entdata           37194

0.768 seconds elapsed
Peak memory usage: 53431746 (51.0M)
